44

N         -6.77562        2.28862        8.58344
C         -6.33588        2.08498        7.21511
C         -5.90290        1.91993        5.75416
C         -5.54998        1.87583        4.26717
C         -5.31684        2.00407        2.76053
C         -5.21337        2.30812        1.26460
C         -5.20872        2.73904       -0.20437
N         -5.24575        3.19880       -1.58270
O         -5.00121       -0.99799        8.71804
C         -4.03313       -0.34974        8.21624
O         -3.37430        0.58694        8.75729
C         -3.62568       -0.73562        6.81407
C         -3.20561       -1.14639        5.39256
C         -2.77323       -1.60055        3.98738
C         -2.32901       -2.10061        2.60199
C         -1.88581       -2.61874        1.25465
O         -2.04614       -3.85677        1.04650
O         -1.39724       -1.76155        0.45586
H         -6.39186        1.55315        9.17692
H         -7.79449        2.25893        8.62113
H         -6.72499        1.08829        7.22532
H         -5.91546        3.06892        7.21624
H         -6.27325        0.91645        5.72659
H         -5.45379        2.88978        5.80512
H         -5.89682        0.86819        4.17096
H         -5.08541        2.83249        4.38499
H         -5.64746        1.00270        2.57929
H         -4.86129        2.95386        2.94834
H         -5.53296        1.31974        1.00795
H         -4.80095        3.26283        1.51629
H         -5.51830        1.76063       -0.50730
H         -4.85954        3.70535        0.09431
H         -5.56857        2.44164       -2.18511
H         -4.31048        3.48686       -1.87027
H         -5.41768       -1.67593        8.22315
H         -2.97675        0.11371        6.76466
H         -4.28295       -1.57873        6.85928
H         -2.55239       -0.30117        5.33093
H         -3.87920       -1.97621        5.44334
H         -2.10438       -0.76868        3.91303
H         -3.46342       -2.41584        4.04935
H         -1.66146       -1.26956        2.50906
H         -3.00956       -2.92190        2.68706
H         -1.32552       -0.86471        0.71759
